Version 4
SHEET 1 988 680
WIRE -304 -112 -448 -112
WIRE 608 -32 208 -32
WIRE -304 -16 -304 -112
WIRE -288 -16 -304 -16
WIRE 352 0 240 0
WIRE 608 0 464 0
WIRE -288 16 -368 16
WIRE 752 16 720 16
WIRE 896 16 864 16
WIRE -368 32 -368 16
WIRE 608 32 272 32
WIRE -64 64 -304 64
WIRE 608 64 304 64
WIRE 208 128 208 -32
WIRE 208 128 160 128
WIRE -368 144 -368 112
WIRE 240 160 240 0
WIRE 240 160 160 160
WIRE 352 160 240 160
WIRE 544 176 464 176
WIRE -304 192 -304 64
WIRE -304 192 -448 192
WIRE 272 192 272 32
WIRE 272 192 160 192
WIRE 352 192 272 192
WIRE 544 192 544 176
WIRE 608 192 544 192
WIRE 896 208 720 208
WIRE 176 224 160 224
WIRE 304 224 304 64
WIRE 304 224 288 224
WIRE 608 224 304 224
FLAG -448 -112 RESET
IOPIN -448 -112 In
FLAG -448 192 CNT
IOPIN -448 192 In
FLAG 896 16 5
IOPIN 896 16 Out
FLAG 896 208 >5
IOPIN 896 208 Out
FLAG -368 144 0
SYMBOL ZZZ\\LOGIC\\CD4xxx\\CD4040B.i 48 -64 R0
SYMATTR InstName U1
SYMBOL ZZZ\\LOGIC\\CD4xxx\\CD4049B.i 400 -48 R0
SYMATTR InstName U2
SYMBOL ZZZ\\LOGIC\\CD4xxx\\CD4012B.i 656 -80 R0
SYMATTR InstName U7
SYMBOL ZZZ\\LOGIC\\CD4xxx\\CD4011B.i 400 112 R0
SYMATTR InstName U8
SYMBOL ZZZ\\LOGIC\\CD4xxx\\CD4049B.i 224 176 R0
SYMATTR InstName U9
SYMBOL ZZZ\\LOGIC\\CD4xxx\\CD4011B.i 656 144 R0
SYMATTR InstName U10
SYMBOL ZZZ\\LOGIC\\CD4xxx\\CD4049B.i 800 -32 R0
SYMATTR InstName U4
SYMBOL ZZZ\\LOGIC\\CD4xxx\\CD4001B.i -240 -64 R0
SYMATTR InstName U3
SYMBOL ZZZ\\LOGIC\\CD4xxx\\CD4049B.i -128 -48 R0
SYMATTR InstName U5
SYMBOL voltage -368 16 R0
WINDOW 3 24 96 Invisible 2
WINDOW 123 0 0 Left 0
WINDOW 39 0 0 Left 0
SYMATTR Value PULSE(0 5 10n 10n 10n 100n 1 1)
SYMATTR InstName V1
TEXT -200 -56 Left 0 ;this is stupid
TEXT 712 -48 Left 0 ;this is stupid
