Version 4
SHEET 1 880 680
WIRE 144 80 144 64
WIRE 144 80 -96 80
WIRE 256 80 144 80
WIRE -96 96 -96 80
WIRE 144 128 144 80
WIRE 112 144 80 144
WIRE 256 160 176 160
WIRE 368 160 256 160
WIRE 112 176 -96 176
WIRE 128 256 128 208
WIRE 128 256 -96 256
WIRE 160 256 160 192
WIRE 160 256 128 256
WIRE 128 320 128 256
FLAG 128 320 0
FLAG 80 144 V_in
IOPIN 80 144 BiDir
FLAG 368 160 V_out
IOPIN 368 160 BiDir
SYMBOL ZZZ\\Comparator\\LM311_TI 144 160 R0
SYMATTR InstName U1
SYMBOL Vcc 144 0 R0
SYMATTR InstName U2
SYMBOL res -112 80 R0
SYMATTR InstName R1
SYMATTR Value 22k
SYMBOL res -112 160 R0
SYMATTR InstName R2
SYMATTR Value 33k
SYMBOL res 240 64 R0
SYMATTR InstName R3
SYMATTR Value 1k
