Version 4
SHEET 1 880 680
WIRE 192 160 192 96
WIRE -48 240 -112 240
WIRE 192 240 128 240
FLAG -112 320 0
SYMBOL res 176 144 R0
SYMATTR InstName R1
SYMATTR Value 330
SYMBOL Vcc 192 32 R0
SYMATTR InstName U2
SYMBOL Magic\ Box 32 240 R0
SYMATTR InstName X1
SYMBOL PDo -112 272 R0
SYMATTR InstName X2
TEXT -152 344 Left 2 !.tran 40m
