Version 4
SHEET 1 2020 980
WIRE 512 -192 176 -192
WIRE 720 -192 672 -192
WIRE 880 -192 848 -192
WIRE 1184 -192 992 -192
WIRE 1184 -128 1184 -192
WIRE 1184 -128 256 -128
WIRE 256 -64 256 -128
WIRE 320 -64 256 -64
WIRE 880 -64 448 -64
WIRE 1088 -48 992 -48
WIRE 880 -32 864 -32
WIRE -176 0 -240 0
WIRE -64 0 -112 0
WIRE 48 0 0 0
WIRE 176 0 176 -192
WIRE 176 0 112 0
WIRE 320 0 176 0
WIRE 480 0 448 0
WIRE 176 64 176 0
WIRE 512 64 176 64
WIRE 704 64 672 64
WIRE 864 64 864 -32
WIRE 864 64 816 64
WIRE 480 416 480 0
FLAG -240 80 0
FLAG 480 480 0
SYMBOL PDo -240 32 R0
SYMATTR InstName X1
SYMBOL IV -144 0 R0
SYMATTR InstName X2
SYMBOL Filtre -32 0 R0
SYMATTR InstName X3
SYMBOL AD 80 0 R0
SYMATTR InstName X4
SYMBOL 5_CNT 384 -48 R0
SYMATTR InstName X6
SYMBOL cap 464 416 R0
SYMATTR InstName C1
SYMATTR Value 10n
SYMBOL TIM3.5ms 592 64 R0
SYMATTR InstName X9
SYMBOL ZZZ\\LOGIC\\CD4xxx\\CD4049B.i 752 16 R0
SYMATTR InstName U2
SYMBOL ZZZ\\LOGIC\\CD4xxx\\CD4011B.i 928 -112 R0
SYMATTR InstName U1
SYMBOL TIM4ms 592 -192 R0
SYMATTR InstName X8
SYMBOL Falling_Edge 784 -208 R0
SYMATTR InstName X10
SYMBOL ZZZ\\LOGIC\\CD4xxx\\CD4049B.i 928 -240 R0
SYMATTR InstName U5
TEXT -112 120 Left 2 !.tran 20m
TEXT 376 512 Left 2 ;The Worst Capacitor
RECTANGLE Normal 352 400 640 544 2
