Version 4
SHEET 1 880 680
WIRE 208 160 96 160
WIRE 400 176 320 176
WIRE 96 192 96 160
FLAG -16 192 in
IOPIN -16 192 In
FLAG 400 176 out
IOPIN 400 176 Out
SYMBOL ZZZ\\LOGIC\\CD4xxx\\CD4049B.i 144 144 R0
SYMATTR InstName U1
SYMBOL ZZZ\\LOGIC\\CD4xxx\\CD4011B.i 256 112 R0
SYMATTR InstName U2
SYMBOL ZZZ\\LOGIC\\CD4xxx\\CD4049B.i 32 144 R0
SYMATTR InstName U3
