Version 4
SHEET 1 880 680
WIRE 224 96 16 96
WIRE 320 96 224 96
WIRE 320 112 320 96
WIRE 128 144 128 16
WIRE 16 160 16 96
WIRE 96 160 16 160
WIRE 224 176 160 176
WIRE 320 176 224 176
WIRE 416 176 320 176
WIRE 96 192 -224 192
WIRE 16 224 16 160
WIRE 128 368 128 208
WIRE 128 368 16 368
WIRE 128 416 128 368
FLAG 128 416 0
FLAG 416 176 V_out
IOPIN 416 176 BiDir
FLAG -224 192 V_in
IOPIN -224 192 BiDir
SYMBOL res 208 80 R0
SYMATTR InstName R3
SYMATTR Value 470k
SYMBOL Vcc 128 -48 R0
SYMATTR InstName U2
SYMBOL res 0 272 R0
SYMATTR InstName R2
SYMATTR Value 1k
SYMBOL cap 304 112 R0
SYMATTR InstName C1
SYMATTR Value 10p
SYMBOL cap 0 224 R0
SYMATTR InstName C2
SYMATTR Value 47n
SYMBOL ValVol\\ST\\OpAmp\\uA741 128 112 R0
SYMATTR InstName U1
