Version 4
SHEET 1 880 680
WIRE 304 80 80 80
WIRE 144 128 144 16
WIRE 80 144 80 80
WIRE 80 144 0 144
WIRE 112 144 80 144
WIRE 304 160 176 160
WIRE 400 160 304 160
WIRE 112 176 80 176
WIRE 80 256 80 176
WIRE 144 256 144 192
WIRE 144 256 80 256
WIRE 144 272 144 256
FLAG 0 144 I_in
IOPIN 0 144 BiDir
FLAG 400 160 V_out
IOPIN 400 160 BiDir
FLAG 144 272 0
SYMBOL res 288 64 R0
SYMATTR InstName R1
SYMATTR Value 680k
SYMBOL Vcc 144 -48 R0
SYMATTR InstName U2
SYMBOL ValVol\\ST\\OpAmp\\uA741 144 96 R0
SYMATTR InstName U3
TEXT 232 336 Left 2 ;LMC6482A works well here
