Version 4
SHEET 1 2732 1608
WIRE 560 -256 560 -272
WIRE 560 -160 560 -192
WIRE -176 0 -224 0
WIRE -64 0 -112 0
WIRE 48 0 0 0
WIRE 160 0 112 0
WIRE 272 0 224 0
WIRE 384 0 336 0
WIRE 512 0 448 0
WIRE 560 80 560 16
WIRE -224 96 -224 80
FLAG 560 80 0
FLAG -224 96 0
SYMBOL IV -144 0 R0
SYMATTR InstName X2
SYMBOL Filtre -32 0 R0
SYMATTR InstName X3
SYMBOL AD 80 0 R0
SYMATTR InstName X4
SYMBOL Vcc 560 -336 R0
SYMATTR InstName U4
SYMBOL PDo -224 32 R0
SYMATTR InstName X1
SYMBOL LED 544 -256 R0
WINDOW 3 48 42 Invisible 2
SYMATTR InstName D1
SYMATTR Value RED
SYMATTR Description Diode
SYMATTR Type diode
SYMBOL Pulse_Validator 192 0 R0
WINDOW 0 0 -32 Invisible 2
SYMATTR InstName X7
SYMBOL ZZZ\\MOS\\irll014n 512 -80 R0
SYMATTR InstName U3
SYMBOL res 544 -176 R0
SYMATTR InstName R2
SYMATTR Value 100
SYMBOL Toggle 416 0 R0
SYMATTR InstName X6
SYMBOL Missing_Pulse_Detector 304 0 R0
SYMATTR InstName X8
TEXT 104 160 Left 2 !.tran 40m
