Version 4
SHEET 1 2732 1608
WIRE 976 -256 976 -272
WIRE 976 -160 976 -192
WIRE 512 -112 512 -128
WIRE -176 0 -224 0
WIRE -64 0 -112 0
WIRE 48 0 0 0
WIRE 160 0 112 0
WIRE 288 0 224 0
WIRE 512 0 512 -32
WIRE 512 0 368 0
WIRE 688 0 512 0
WIRE 800 0 752 0
WIRE 928 0 864 0
WIRE -224 32 -224 0
WIRE 512 32 512 0
WIRE 400 48 368 48
WIRE 976 48 976 16
WIRE 288 80 288 0
WIRE 320 80 288 80
WIRE 368 128 368 96
WIRE 400 128 400 48
WIRE 400 128 368 128
WIRE 512 128 512 96
WIRE 512 128 400 128
WIRE 512 160 512 128
FLAG 512 160 0
FLAG 976 48 0
FLAG -224 112 0
SYMBOL IV -144 0 R0
SYMATTR InstName X2
SYMBOL Filtre -32 0 R0
SYMATTR InstName X3
SYMBOL AD 80 0 R0
SYMATTR InstName X4
SYMBOL cap 496 32 R0
SYMATTR InstName C2
SYMATTR Value 100n
SYMBOL Vcc 976 -336 R0
SYMATTR InstName U4
SYMBOL res 496 -128 R0
SYMATTR InstName R1
SYMATTR Value 100k
SYMBOL AD 720 0 R0
SYMATTR InstName X5
SYMBOL PDo -224 64 R0
SYMATTR InstName X1
SYMBOL LED 960 -256 R0
SYMATTR InstName D1
SYMATTR Value LedRed
SYMATTR Description Diode
SYMATTR Type diode
SYMBOL Pulse_Validator 192 0 R0
WINDOW 0 0 -32 Invisible 2
SYMATTR InstName X7
SYMBOL Vcc 512 -192 R0
SYMATTR InstName U1
SYMBOL ZZZ\\LOGIC\\Hef4000\\Hef4007n 320 0 R0
SYMATTR InstName U2
SYMBOL ZZZ\\MOS\\irll014n 928 -80 R0
SYMATTR InstName U3
SYMBOL res 960 -176 R0
SYMATTR InstName R2
SYMATTR Value 100
SYMBOL Toggle 832 0 R0
SYMATTR InstName X6
TEXT 288 224 Left 2 ;The Analog Circuit of Shame
TEXT -128 248 Left 2 !.tran 40m
RECTANGLE Normal 272 -240 640 256 2
