Version 4
SHEET 1 2732 1608
WIRE 1664 -320 1264 -320
WIRE 2112 -320 1664 -320
WIRE 2112 -288 2112 -320
WIRE 512 -192 176 -192
WIRE 720 -192 672 -192
WIRE 880 -192 848 -192
WIRE 1184 -192 992 -192
WIRE 2112 -192 2112 -224
WIRE 1264 -144 1264 -320
WIRE 1280 -144 1264 -144
WIRE 1184 -128 1184 -192
WIRE 1184 -128 256 -128
WIRE 1264 -128 1264 -144
WIRE 2112 -96 2112 -112
WIRE 1280 -80 1280 -144
WIRE 1280 -80 1264 -80
WIRE 256 -64 256 -128
WIRE 320 -64 256 -64
WIRE 880 -64 448 -64
WIRE 1216 -48 992 -48
WIRE 1696 -48 1680 -48
WIRE 880 -32 864 -32
WIRE 1664 -16 1664 -320
WIRE 1696 -16 1664 -16
WIRE 2064 -16 1888 -16
WIRE -176 0 -224 0
WIRE -64 0 -112 0
WIRE 48 0 0 0
WIRE 176 0 176 -192
WIRE 176 0 112 0
WIRE 320 0 176 0
WIRE 480 0 448 0
WIRE 1264 16 1264 -32
WIRE 1376 16 1264 16
WIRE 1504 16 1440 16
WIRE 1696 16 1616 16
WIRE -224 32 -224 0
WIRE 1664 48 1664 -16
WIRE 1696 48 1664 48
WIRE 176 64 176 0
WIRE 512 64 176 64
WIRE 704 64 672 64
WIRE 864 64 864 -32
WIRE 864 64 816 64
WIRE 1680 80 1680 -48
WIRE 1696 80 1680 80
WIRE 1680 160 1680 80
WIRE 2112 160 2112 0
WIRE 2112 160 1680 160
WIRE 1680 176 1680 160
WIRE 1264 1392 1264 16
WIRE 1264 1392 1184 1392
WIRE 1184 1408 1184 1392
WIRE 1184 1488 1184 1472
WIRE 1264 1488 1264 1472
WIRE 1264 1488 1184 1488
WIRE 1264 1520 1264 1488
FLAG 1264 1520 0
FLAG 1680 176 0
FLAG -224 112 0
SYMBOL IV -144 0 R0
SYMATTR InstName X2
SYMBOL Filtre -32 0 R0
SYMATTR InstName X3
SYMBOL AD 80 0 R0
SYMATTR InstName X4
SYMBOL 5_CNT 384 -48 R0
SYMATTR InstName X6
SYMBOL TIM3.5ms 592 64 R0
SYMATTR InstName X9
SYMBOL ZZZ\\LOGIC\\CD4xxx\\CD4049B.i 752 16 R0
SYMATTR InstName U2
SYMBOL ZZZ\\LOGIC\\CD4xxx\\CD4011B.i 928 -112 R0
SYMATTR InstName U1
SYMBOL TIM4ms 592 -192 R0
SYMATTR InstName X8
SYMBOL Falling_Edge 784 -208 R0
SYMATTR InstName X10
SYMBOL ZZZ\\LOGIC\\CD4xxx\\CD4049B.i 928 -240 R0
SYMATTR InstName U5
SYMBOL cap 1168 1408 R0
SYMATTR InstName C2
SYMATTR Value 100n
SYMBOL ZZZ\\LOGIC\\Hef4000\\Hef4007p 1216 -128 R0
SYMATTR InstName U3
SYMBOL Vcc 1664 -384 R0
SYMATTR InstName U4
SYMBOL res 1248 1376 R0
SYMATTR InstName R1
SYMATTR Value 100k
SYMBOL AD 1408 16 R0
SYMATTR InstName X5
SYMBOL ZZZ\\LOGIC\\CD4xxx\\CD4027B.1 1792 -112 R0
SYMATTR InstName U6
SYMBOL ZZZ\\LOGIC\\CD4xxx\\CD4049B.i 1552 -32 R0
SYMATTR InstName U8
SYMBOL ZZZ\\MOS\\irll014n 2064 -96 R0
SYMATTR InstName U7
SYMBOL PDo -224 64 R0
SYMATTR InstName X1
SYMBOL res 2096 -208 R0
SYMATTR InstName R2
SYMATTR Value 330
SYMBOL LED 2096 -288 R0
SYMATTR InstName D1
SYMATTR Value LedRed
SYMATTR Description Diode
SYMATTR Type diode
TEXT 1152 1560 Left 2 ;The RC of Shame
TEXT -520 1590 Left 2 !.tran 40m
RECTANGLE Normal 1120 1376 1376 1584 2
