Version 4
SHEET 1 880 680
WIRE -32 -32 -144 -32
WIRE 320 -32 -32 -32
WIRE 496 0 -336 0
WIRE -144 32 -144 -32
WIRE 0 64 -64 64
WIRE 320 64 320 -32
WIRE 320 64 224 64
WIRE 320 96 320 64
WIRE -336 128 -336 0
WIRE -336 128 -368 128
WIRE -320 128 -336 128
WIRE 0 128 -208 128
WIRE 256 128 224 128
WIRE -144 192 -144 112
WIRE -144 192 -368 192
WIRE 0 192 -144 192
WIRE 256 192 256 128
WIRE 256 192 224 192
WIRE 320 192 320 176
WIRE 320 192 256 192
WIRE 416 192 320 192
WIRE 320 208 320 192
WIRE -32 256 -32 -32
WIRE 0 256 -32 256
WIRE 256 256 224 256
WIRE 496 272 496 0
WIRE 496 272 464 272
WIRE -64 320 -64 64
WIRE 256 320 -64 320
WIRE 320 320 320 272
WIRE 320 320 256 320
WIRE 416 320 416 288
WIRE 416 320 320 320
WIRE 320 352 320 320
FLAG 320 352 0
FLAG -368 128 Trig
IOPIN -368 128 In
FLAG -368 192 Out
IOPIN -368 192 Out
SYMBOL ZZZ\\TIMER\\NE555_R 112 160 R0
SYMATTR InstName U1
SYMBOL ZZZ\\LOGIC\\CD4xxx\\CD4049B.i -272 80 R0
SYMATTR InstName U2
SYMBOL ZZZ\\MOS\\irll014n 464 192 M0
SYMATTR InstName U3
SYMBOL cap 240 256 R0
SYMATTR InstName C1
SYMATTR Value 10n
SYMBOL cap 304 208 R0
SYMATTR InstName C2
SYMATTR Value 100n
SYMBOL res 304 80 R0
SYMATTR InstName R1
SYMATTR Value 82k
SYMBOL Vcc 320 -96 R0
SYMATTR InstName U4
SYMBOL res -160 16 R0
SYMATTR InstName R2
SYMATTR Value 1k
