Version 4
SHEET 1 880 680
WIRE -528 160 -560 160
WIRE -320 160 -368 160
WIRE -128 160 -192 160
WIRE 64 160 0 160
WIRE 208 176 176 176
WIRE 352 176 320 176
WIRE 64 192 48 192
WIRE -560 224 -560 160
WIRE -560 224 -624 224
WIRE -128 224 -560 224
WIRE -560 320 -560 224
WIRE -528 320 -560 320
WIRE -144 320 -368 320
WIRE 48 320 48 192
WIRE 48 320 -32 320
FLAG -624 224 in
IOPIN -624 224 In
FLAG 352 176 valid
IOPIN 352 176 Out
SYMBOL ZZZ\\LOGIC\\CD4xxx\\CD4049B.i -96 272 R0
SYMATTR InstName U1
SYMBOL ZZZ\\LOGIC\\CD4xxx\\CD4011B.i 112 112 R0
SYMATTR InstName U2
SYMBOL 5_cnt -64 176 R0
SYMATTR InstName X1
SYMBOL TIM4ms -448 160 R0
SYMATTR InstName X2
SYMBOL TIM3.5ms -448 320 R0
SYMATTR InstName X3
SYMBOL falling_edge -256 144 R0
SYMATTR InstName X4
SYMBOL ZZZ\\LOGIC\\CD4xxx\\CD4049B.i 256 128 R0
SYMATTR InstName U3
