Version 4
SHEET 1 7972 1316
WIRE 2352 -800 1712 -800
WIRE 2560 -800 2352 -800
WIRE 2688 -800 2560 -800
WIRE 2848 -800 2688 -800
WIRE 4864 -800 2848 -800
WIRE 2560 -720 2560 -800
WIRE 2688 -720 2688 -800
WIRE 2352 -704 2352 -800
WIRE 2848 -672 2848 -800
WIRE 2480 -640 2448 -640
WIRE 3232 -560 3088 -560
WIRE 3472 -544 3344 -544
WIRE 2352 -528 2352 -624
WIRE 2448 -528 2448 -640
WIRE 2448 -528 2352 -528
WIRE 2480 -528 2448 -528
WIRE 2848 -528 2848 -592
WIRE 2848 -528 2768 -528
WIRE 3088 -528 3088 -560
WIRE 3088 -528 2848 -528
WIRE 3104 -528 3088 -528
WIRE 3232 -528 3216 -528
WIRE 2096 -432 1968 -432
WIRE 2480 -416 2208 -416
WIRE 1968 -400 1968 -432
WIRE 1968 -400 1776 -400
WIRE 2096 -400 2080 -400
WIRE 2352 -352 2352 -528
WIRE 2560 -320 2560 -352
WIRE 4864 -304 4864 -800
WIRE 5392 -304 4864 -304
WIRE 5632 -304 5392 -304
WIRE 5760 -304 5632 -304
WIRE 5920 -304 5760 -304
WIRE 6240 -304 5920 -304
WIRE 6704 -304 6240 -304
WIRE 6704 -288 6704 -304
WIRE 704 -240 -1200 -240
WIRE 1248 -240 704 -240
WIRE 1360 -240 1248 -240
WIRE 1440 -240 1360 -240
WIRE 1712 -240 1712 -800
WIRE 1712 -240 1440 -240
WIRE 2352 -240 2352 -288
WIRE 2352 -240 1840 -240
WIRE 2560 -240 2560 -256
WIRE 2560 -240 2352 -240
WIRE 2688 -240 2688 -352
WIRE 2688 -240 2560 -240
WIRE 6704 -192 6704 -224
WIRE 1248 -176 1248 -240
WIRE 5632 -176 5632 -304
WIRE 5760 -176 5760 -304
WIRE 1440 -160 1440 -240
WIRE 784 -112 592 -112
WIRE 784 -96 784 -112
WIRE 5392 -96 5392 -304
WIRE 5552 -96 5520 -96
WIRE 6704 -96 6704 -112
WIRE 5920 -80 5920 -304
WIRE 3472 -64 3472 -544
WIRE 3552 -64 3472 -64
WIRE 704 -48 704 -240
WIRE 6304 -48 6272 -48
WIRE -1200 -32 -1200 -240
WIRE 592 -32 592 -112
WIRE 672 -32 592 -32
WIRE 1360 -32 1360 -240
WIRE 784 -16 736 -16
WIRE 912 -16 784 -16
WIRE 1008 -16 992 -16
WIRE 1328 -16 1008 -16
WIRE 6240 -16 6240 -304
WIRE 6304 -16 6240 -16
WIRE 6656 -16 6496 -16
WIRE -368 0 -992 0
WIRE -192 0 -288 0
WIRE -80 0 -112 0
WIRE 352 0 0 0
WIRE 432 0 416 0
WIRE 672 0 432 0
WIRE 1440 0 1440 -80
WIRE 1440 0 1392 0
WIRE 1776 0 1776 -400
WIRE 1776 0 1440 0
WIRE 3552 0 1776 0
WIRE 1248 16 1248 -96
WIRE 1328 16 1248 16
WIRE 1440 16 1440 0
WIRE 5392 16 5392 -16
WIRE 5392 16 5232 16
WIRE 5520 16 5520 -96
WIRE 5520 16 5392 16
WIRE 5552 16 5520 16
WIRE 5920 16 5920 0
WIRE 5920 16 5840 16
WIRE 6304 16 5920 16
WIRE -992 32 -992 0
WIRE 6240 48 6240 -16
WIRE 6304 48 6240 48
WIRE 4032 64 3776 64
WIRE 6272 80 6272 -48
WIRE 6304 80 6272 80
WIRE 432 96 432 0
WIRE 592 96 592 -32
WIRE 1008 96 1008 -16
WIRE 3888 96 3776 96
WIRE 4032 96 4000 96
WIRE 1248 112 1248 16
WIRE 1440 112 1440 96
WIRE 1440 112 1248 112
WIRE 4160 112 4144 112
WIRE 4640 112 4272 112
WIRE 4032 128 3776 128
WIRE 5024 128 4752 128
WIRE 5552 128 5024 128
WIRE 1248 144 1248 112
WIRE 4640 144 4432 144
WIRE -992 160 -992 112
WIRE 3808 160 3776 160
WIRE 4032 160 3920 160
WIRE 5232 160 5232 16
WIRE 5392 160 5392 16
WIRE 5024 240 5024 128
WIRE 5040 240 5024 240
WIRE 5184 240 5152 240
WIRE 5632 240 5632 192
WIRE -1200 272 -1200 48
WIRE -992 272 -992 240
WIRE -992 272 -1200 272
WIRE 112 272 112 160
WIRE 112 272 -992 272
WIRE 432 272 432 176
WIRE 432 272 112 272
WIRE 592 272 592 176
WIRE 592 272 432 272
WIRE 704 272 704 16
WIRE 704 272 592 272
WIRE 1008 272 1008 160
WIRE 1008 272 704 272
WIRE 1248 272 1248 224
WIRE 1248 272 1008 272
WIRE 1360 272 1360 32
WIRE 1360 272 1248 272
WIRE 1840 272 1840 -240
WIRE 1840 272 1360 272
WIRE -1200 320 -1200 272
WIRE 5232 320 5232 256
WIRE 5232 320 4864 320
WIRE 5392 320 5392 224
WIRE 5392 320 5232 320
WIRE 5632 320 5632 304
WIRE 5632 320 5392 320
WIRE 5760 320 5760 192
WIRE 5760 320 5632 320
WIRE 6272 320 6272 80
WIRE 6272 320 5760 320
WIRE 6704 320 6704 0
WIRE 6704 320 6272 320
WIRE 1712 336 1712 -240
WIRE 2352 336 1712 336
WIRE 2560 336 2352 336
WIRE 2688 336 2560 336
WIRE 2848 336 2688 336
WIRE 2560 416 2560 336
WIRE 2688 416 2688 336
WIRE 2352 432 2352 336
WIRE 2848 464 2848 336
WIRE 2480 496 2448 496
WIRE 2352 608 2352 512
WIRE 2448 608 2448 496
WIRE 2448 608 2352 608
WIRE 2480 608 2448 608
WIRE 2848 608 2848 544
WIRE 2848 608 2768 608
WIRE 3056 608 2848 608
WIRE 4432 608 4432 144
WIRE 4432 608 3168 608
WIRE 2096 704 1968 704
WIRE 2480 720 2208 720
WIRE 1776 736 1776 0
WIRE 1968 736 1968 704
WIRE 1968 736 1776 736
WIRE 2096 736 2080 736
WIRE 2352 784 2352 608
WIRE 2560 816 2560 784
WIRE 1840 896 1840 272
WIRE 2352 896 2352 848
WIRE 2352 896 1840 896
WIRE 2560 896 2560 880
WIRE 2560 896 2352 896
WIRE 2688 896 2688 784
WIRE 2688 896 2560 896
WIRE 4864 896 4864 320
WIRE 4864 896 2688 896
FLAG -1200 320 0
SYMBOL voltage -992 144 R0
WINDOW 123 0 0 Left 0
WINDOW 39 0 0 Left 0
SYMATTR InstName V1
SYMATTR Value EXP(0 0.25 0 4.5u 50u 7u 500u 5 5m)
SYMBOL bv -992 16 R0
SYMATTR InstName B1
SYMATTR Value V=0.2*white(1e6*time)
SYMBOL voltage -1200 -48 R0
WINDOW 123 0 0 Left 0
WINDOW 39 0 0 Left 0
SYMATTR InstName Vcc
SYMATTR Value 5
SYMBOL ZZZ\\OpAmp\\uA741 704 -80 R0
SYMATTR InstName U1
SYMBOL ZZZ\\Comparator\\LM393 1360 -64 R0
SYMATTR InstName U2
SYMBOL res 1424 -176 R0
SYMATTR InstName R_pullup
SYMATTR Value 1k
SYMBOL ZZZ\\TIMER\\NE555-1 2480 -640 R0
SYMATTR InstName U3
SYMBOL cap 2544 -320 R0
SYMATTR InstName C_dec2
SYMATTR Value 10n
SYMBOL res 2832 -688 R0
SYMATTR InstName R_pullup2
SYMATTR Value 1k
SYMBOL cap 2336 -352 R0
SYMATTR InstName C_time2
SYMATTR Value 8.2n
SYMBOL res 2336 -720 R0
SYMATTR InstName R_time2
SYMATTR Value 470k
SYMBOL ZZZ\\LOGIC\\CD4xxx\\CD4049B.i 2016 -448 R0
SYMATTR InstName U4
SYMBOL ZZZ\\LOGIC\\CD4xxx\\CD4011B.i 2144 -480 R0
SYMATTR InstName U5
SYMBOL ZZZ\\LOGIC\\CD4xxx\\CD4049B.i 3152 -576 R0
SYMATTR InstName U7
SYMBOL ZZZ\\TIMER\\NE555-1 2480 496 R0
SYMATTR InstName U10
SYMBOL cap 2544 816 R0
SYMATTR InstName C_dec1
SYMATTR Value 10n
SYMBOL res 2832 448 R0
SYMATTR InstName R_pullup1
SYMATTR Value 1k
SYMBOL cap 2336 784 R0
SYMATTR InstName C_time1
SYMATTR Value 10n
SYMBOL res 2336 416 R0
SYMATTR InstName R_time1
SYMATTR Value 330k
SYMBOL ZZZ\\LOGIC\\CD4xxx\\CD4049B.i 2016 688 R0
SYMATTR InstName U11
SYMBOL ZZZ\\LOGIC\\CD4xxx\\CD4011B.i 2144 656 R0
SYMATTR InstName U12
SYMBOL ZZZ\\LOGIC\\CD4xxx\\CD4049B.i 3104 560 R0
SYMATTR InstName U13
SYMBOL ZZZ\\LOGIC\\CD4xxx\\CD4040B.i 3664 -128 R0
SYMATTR InstName U16
SYMBOL ZZZ\\LOGIC\\CD4xxx\\CD4012B.i 4080 16 R0
SYMATTR InstName U17
SYMBOL ZZZ\\LOGIC\\CD4xxx\\CD4049B.i 3936 48 R0
SYMATTR InstName U18
SYMBOL ZZZ\\LOGIC\\CD4xxx\\CD4049B.i 4208 64 R0
SYMATTR InstName U19
SYMBOL ZZZ\\LOGIC\\CD4xxx\\CD4049B.i 3856 112 R0
SYMATTR InstName U21
SYMBOL ZZZ\\LOGIC\\CD4xxx\\CD4011B.i 4688 64 R0
SYMATTR InstName U20
SYMBOL res 1424 0 R0
SYMATTR InstName R6
SYMATTR Value 100k
SYMBOL res 1232 128 R0
SYMATTR InstName R5
SYMATTR Value 47k
SYMBOL res 1232 -192 R0
SYMATTR InstName R4
SYMATTR Value 47k
SYMBOL ZZZ\\LOGIC\\CD4xxx\\CD4001B.i 3280 -608 R0
SYMATTR InstName U14
SYMBOL ZZZ\\TIMER\\NE555-1 5552 -96 R0
SYMATTR InstName U6
SYMBOL ZZZ\\LOGIC\\CD4xxx\\CD4049B.i 5088 192 R0
SYMATTR InstName U8
SYMBOL cap 5616 240 R0
SYMATTR InstName C_dec3
SYMATTR Value 10n
SYMBOL cap 5376 160 R0
SYMATTR InstName C_time3
SYMATTR Value 100n
SYMBOL res 5376 -112 R0
SYMATTR InstName R_time3
SYMATTR Value 82k
SYMBOL res 5904 -96 R0
SYMATTR InstName R_pullup3
SYMATTR Value 1k
SYMBOL ZZZ\\LOGIC\\CD4xxx\\CD4027B.i 6400 -112 R0
SYMATTR InstName U15
SYMBOL LED 6688 -288 R0
SYMATTR InstName LED1
SYMATTR Value W5AP-LZMZ-5K8L
SYMATTR Description Diode
SYMATTR Type diode
SYMBOL res 6688 -208 R0
SYMATTR InstName R_lim
SYMATTR Value 150
SYMBOL voltage -96 0 R90
WINDOW 123 0 0 Left 0
WINDOW 39 0 0 Left 0
WINDOW 0 25 16 VTop 2
WINDOW 3 24 96 Invisible 2
SYMATTR InstName V2
SYMATTR Value PULSE(0 -0.25 15m 4.5u 7u 50u 500u 5)
SYMBOL voltage 16 0 R90
WINDOW 123 0 0 Left 0
WINDOW 39 0 0 Left 0
WINDOW 0 25 16 VTop 2
WINDOW 3 24 96 Invisible 2
SYMATTR InstName V3
SYMATTR Value PULSE(0 -0.25 35m 4.5u 7u 50u 500u 2)
SYMBOL irlr_u8259pbf 5200 208 R0
SYMATTR InstName Q1
SYMBOL irlr_u8259pbf 6672 -48 R0
SYMATTR InstName Q2
SYMBOL voltage -272 0 R90
WINDOW 0 -32 56 VBottom 2
WINDOW 3 32 56 Invisible 2
WINDOW 123 0 0 Left 0
WINDOW 39 0 0 Left 0
SYMATTR InstName B2
SYMATTR Value SINE(.1 .1 100 0 0 0 100)
SYMBOL voltage 112 64 R0
WINDOW 3 24 152 Left 2
WINDOW 123 24 124 Left 2
WINDOW 39 0 0 Left 0
SYMATTR InstName V4
SYMATTR Value 1.1
SYMATTR Value2 AC 1
SYMBOL cap 416 -16 R90
WINDOW 0 0 32 VBottom 2
WINDOW 3 32 32 VTop 2
SYMATTR InstName C2
SYMATTR Value 100n
SYMBOL res 416 80 R0
SYMATTR InstName R3
SYMATTR Value 1.5k
SYMBOL cap 992 96 R0
SYMATTR InstName C1
SYMATTR Value 10n
SYMBOL res 1008 -32 R90
WINDOW 0 0 56 VBottom 2
WINDOW 3 32 56 VTop 2
SYMATTR InstName R1
SYMATTR Value 1k
SYMBOL res 768 -112 R0
SYMATTR InstName R2
SYMATTR Value 22k
SYMBOL res 576 80 R0
SYMATTR InstName R7
SYMATTR Value 1k
TEXT -920 312 Left 2 !.tran 100m\n;ac dec 100 10 1Meg
TEXT -920 392 Left 2 ;Input Voltage Signal
TEXT 584 400 Left 2 ;Signal Treatment
TEXT 1296 392 Left 2 ;A/D Conversion
TEXT 1976 -328 Left 2 ;Rising Edge Trigger
TEXT 2568 -200 Left 2 ;4ms Timer
TEXT 3104 -440 Left 2 ;Falling Edge Trigger
TEXT 1976 808 Left 2 ;Rising Edge Trigger
TEXT 2568 936 Left 2 ;3.5ms Timer
TEXT 3824 528 Left 2 ;5 - Counter
TEXT 2544 -112 Left 2 ;Reset Window
TEXT 2560 1016 Left 2 ;Read Window
TEXT 3104 1104 Left 2 ;Burst Validation
TEXT 5384 368 Left 2 ;Missing Pulse Detector
TEXT 6248 368 Left 2 ;Rising Edge Toggle
TEXT 6728 360 Left 2 ;Actuator
TEXT -256 392 Left 2 ;Perturbations & Diagnostics
TEXT 376 320 Left 2 ;High Pass
TEXT 944 320 Left 2 ;Low Pass
TEXT 632 320 Left 2 ;Amplification
TEXT -352 320 Left 2 ;Noise
TEXT -160 320 Left 2 ;Burst Killers
TEXT 104 320 Left 2 ;Bode
TEXT -376 48 Left 0 ;100 Hz sine wave & offset\nSimulates ambient light
TEXT -176 64 Left 0 ;kills burst #4
TEXT -88 64 Left 0 ;partially kills burst #8
TEXT -1224 392 Left 2 ;Power
RECTANGLE Normal -1040 -96 -496 432 2
RECTANGLE Normal 1120 432 304 -288 2
RECTANGLE Normal 1600 432 1184 -288 2
RECTANGLE Normal 2256 -288 1920 -496 2
RECTANGLE Normal 3008 -160 2304 -848 2
RECTANGLE Normal 3392 -400 3056 -624 2
RECTANGLE Normal 2256 848 1920 640 2
RECTANGLE Normal 3008 976 2304 288 2
RECTANGLE Normal 4816 592 3504 -144 2
RECTANGLE Normal 3440 -80 1872 -896 2
RECTANGLE Normal 1872 224 3216 1056 2
RECTANGLE Normal 4912 1136 1664 -944 2
RECTANGLE Normal 6112 400 4976 -352 2
RECTANGLE Normal 6544 400 6176 -352 2
RECTANGLE Normal 6960 400 6608 -352 2
RECTANGLE Normal 240 432 -432 -96 2
RECTANGLE Normal 528 352 336 -160 2
RECTANGLE Normal 864 352 560 -160 2
RECTANGLE Normal 1088 352 896 -160 2
RECTANGLE Normal -1104 432 -1280 -288 2
RECTANGLE Normal -240 352 -400 -64 2
RECTANGLE Normal 32 352 -208 -64 2
RECTANGLE Normal 208 352 64 -64 2
