Version 4
SHEET 1 7972 1316
WIRE 1904 -768 1712 -768
WIRE 2352 -768 1904 -768
WIRE 2560 -768 2352 -768
WIRE 2688 -768 2560 -768
WIRE 2848 -768 2688 -768
WIRE 3552 -768 2848 -768
WIRE 2352 -736 2352 -768
WIRE 2848 -736 2848 -768
WIRE 2560 -688 2560 -768
WIRE 2688 -688 2688 -768
WIRE 2480 -608 2448 -608
WIRE 3136 -512 3120 -512
WIRE 3264 -512 3248 -512
WIRE 2352 -496 2352 -656
WIRE 2448 -496 2448 -608
WIRE 2448 -496 2352 -496
WIRE 2480 -496 2448 -496
WIRE 2848 -496 2848 -656
WIRE 2848 -496 2768 -496
WIRE 3120 -496 3120 -512
WIRE 3120 -496 2848 -496
WIRE 3456 -496 3376 -496
WIRE 3536 -496 3456 -496
WIRE 3120 -480 3120 -496
WIRE 3264 -480 3120 -480
WIRE 2480 -384 2256 -384
WIRE 3248 -368 3248 -512
WIRE 2352 -320 2352 -496
WIRE 3552 -304 3552 -768
WIRE 3632 -304 3552 -304
WIRE 4032 -304 3632 -304
WIRE 4080 -304 4032 -304
WIRE 4128 -304 4080 -304
WIRE 4176 -304 4128 -304
WIRE 5008 -304 4176 -304
WIRE 5392 -304 5008 -304
WIRE 5632 -304 5392 -304
WIRE 5760 -304 5632 -304
WIRE 5920 -304 5760 -304
WIRE 6208 -304 5920 -304
WIRE 6240 -304 6208 -304
WIRE 6640 -304 6240 -304
WIRE 6736 -304 6640 -304
WIRE 6736 -288 6736 -304
WIRE 2560 -272 2560 -320
WIRE 672 -240 -1232 -240
WIRE 1216 -240 672 -240
WIRE 1328 -240 1216 -240
WIRE 1408 -240 1328 -240
WIRE 1712 -240 1712 -768
WIRE 1712 -240 1408 -240
WIRE 2048 -240 1712 -240
WIRE 4176 -240 4176 -304
WIRE 1888 -208 1760 -208
WIRE 2352 -208 2352 -256
WIRE 2352 -208 1888 -208
WIRE 2560 -208 2352 -208
WIRE 2688 -208 2688 -320
WIRE 2688 -208 2560 -208
WIRE 3248 -208 3248 -304
WIRE 3248 -208 2688 -208
WIRE 1888 -192 1888 -208
WIRE 1216 -176 1216 -240
WIRE 5632 -176 5632 -304
WIRE 5760 -176 5760 -304
WIRE 1408 -160 1408 -240
WIRE 4304 -160 4176 -160
WIRE 4480 -144 4416 -144
WIRE 4304 -128 3936 -128
WIRE 768 -112 560 -112
WIRE 4176 -112 4176 -160
WIRE 768 -96 768 -112
WIRE 5392 -96 5392 -304
WIRE 5552 -96 5520 -96
WIRE 6736 -96 6736 -224
WIRE 4128 -80 4128 -304
WIRE 5920 -80 5920 -304
WIRE 3536 -64 3536 -496
WIRE 3632 -64 3536 -64
WIRE 3648 -64 3632 -64
WIRE 672 -48 672 -240
WIRE 6304 -48 6272 -48
WIRE -1232 -32 -1232 -240
WIRE 560 -32 560 -112
WIRE 640 -32 560 -32
WIRE 1328 -32 1328 -240
WIRE 768 -16 704 -16
WIRE 880 -16 768 -16
WIRE 976 -16 960 -16
WIRE 1296 -16 976 -16
WIRE 6240 -16 6240 -304
WIRE 6304 -16 6240 -16
WIRE 6528 -16 6496 -16
WIRE 6624 -16 6528 -16
WIRE 6688 -16 6624 -16
WIRE -400 0 -640 0
WIRE -224 0 -320 0
WIRE -112 0 -144 0
WIRE 320 0 -32 0
WIRE 400 0 384 0
WIRE 640 0 400 0
WIRE 1408 0 1408 -80
WIRE 1408 0 1360 0
WIRE 1680 0 1408 0
WIRE 1904 0 1680 0
WIRE 3616 0 1904 0
WIRE 3648 0 3616 0
WIRE 4304 0 4128 0
WIRE 1216 16 1216 -96
WIRE 1296 16 1216 16
WIRE 1408 16 1408 0
WIRE 4448 16 4416 16
WIRE 5392 16 5392 -16
WIRE 5392 16 5232 16
WIRE 5520 16 5520 -96
WIRE 5520 16 5392 16
WIRE 5552 16 5520 16
WIRE 5920 16 5920 0
WIRE 5920 16 5840 16
WIRE 6096 16 5920 16
WIRE 6192 16 6096 16
WIRE 6304 16 6192 16
WIRE -1024 32 -1024 0
WIRE 4304 32 3968 32
WIRE 6240 48 6240 -16
WIRE 6304 48 6240 48
WIRE 3936 64 3936 -128
WIRE 3936 64 3872 64
WIRE 4480 64 4480 -144
WIRE 4512 64 4480 64
WIRE 2048 80 2048 -240
WIRE 2080 80 2048 80
WIRE 4080 80 4080 -304
WIRE 6272 80 6272 -48
WIRE 6304 80 6272 80
WIRE 400 96 400 0
WIRE 560 96 560 -32
WIRE 976 96 976 -16
WIRE 3968 96 3968 32
WIRE 3968 96 3872 96
WIRE 4448 96 4448 16
WIRE 4512 96 4448 96
WIRE 6736 96 6736 0
WIRE 1216 112 1216 16
WIRE 1408 112 1408 96
WIRE 1408 112 1216 112
WIRE 2048 112 2048 80
WIRE 2080 112 2048 112
WIRE 4672 112 4624 112
WIRE 4768 112 4672 112
WIRE 2256 128 2256 -384
WIRE 2256 128 2192 128
WIRE 3968 128 3872 128
WIRE 4512 128 4448 128
WIRE 4992 128 4880 128
WIRE 5024 128 4992 128
WIRE 5040 128 5024 128
WIRE 5552 128 5152 128
WIRE -1024 144 -1024 112
WIRE -640 144 -640 0
WIRE -640 144 -1024 144
WIRE 1216 144 1216 112
WIRE 1904 144 1904 0
WIRE 1920 144 1904 144
WIRE 2048 144 2032 144
WIRE 2080 144 2048 144
WIRE 4768 144 4736 144
WIRE -1024 160 -1024 144
WIRE 3936 160 3872 160
WIRE 4304 160 4080 160
WIRE 4512 160 4480 160
WIRE 5232 160 5232 16
WIRE 5392 160 5392 16
WIRE 1904 176 1904 144
WIRE 2080 176 1904 176
WIRE 4448 176 4448 128
WIRE 4448 176 4416 176
WIRE 3968 192 3968 128
WIRE 4304 192 3968 192
WIRE 2048 208 2048 144
WIRE 4080 208 4080 160
WIRE 4032 240 4032 -304
WIRE 5024 240 5024 128
WIRE 5184 240 5024 240
WIRE 5632 240 5632 192
WIRE -1232 272 -1232 48
WIRE -1024 272 -1024 240
WIRE -1024 272 -1232 272
WIRE 80 272 80 160
WIRE 80 272 -1024 272
WIRE 400 272 400 176
WIRE 400 272 80 272
WIRE 560 272 560 176
WIRE 560 272 400 272
WIRE 672 272 672 16
WIRE 672 272 560 272
WIRE 976 272 976 160
WIRE 976 272 672 272
WIRE 1216 272 1216 224
WIRE 1216 272 976 272
WIRE 1328 272 1328 32
WIRE 1328 272 1216 272
WIRE 1760 272 1760 -208
WIRE 1760 272 1328 272
WIRE 2048 272 1760 272
WIRE -1232 320 -1232 272
WIRE 4304 320 4032 320
WIRE 4992 320 4864 320
WIRE 5232 320 5232 256
WIRE 5232 320 4992 320
WIRE 5392 320 5392 224
WIRE 5392 320 5232 320
WIRE 5632 320 5632 304
WIRE 5632 320 5392 320
WIRE 5760 320 5760 192
WIRE 5760 320 5632 320
WIRE 6208 320 5760 320
WIRE 6272 320 6272 80
WIRE 6272 320 6208 320
WIRE 6624 320 6272 320
WIRE 6736 320 6736 176
WIRE 6736 320 6624 320
WIRE 4480 336 4480 160
WIRE 4480 336 4416 336
WIRE 4992 336 4992 320
WIRE 6208 336 6208 320
WIRE 6624 336 6624 320
WIRE 3936 352 3936 160
WIRE 4304 352 3936 352
WIRE 1712 448 1712 -240
WIRE 1904 448 1712 448
WIRE 2352 448 1904 448
WIRE 2560 448 2352 448
WIRE 2688 448 2560 448
WIRE 2848 448 2688 448
WIRE 2352 480 2352 448
WIRE 2848 480 2848 448
WIRE 2560 528 2560 448
WIRE 2688 528 2688 448
WIRE 2480 608 2448 608
WIRE 2352 720 2352 560
WIRE 2448 720 2448 608
WIRE 2448 720 2352 720
WIRE 2480 720 2448 720
WIRE 2848 720 2848 560
WIRE 2848 720 2768 720
WIRE 3056 720 2848 720
WIRE 4736 720 4736 144
WIRE 4736 720 3056 720
WIRE 2256 832 2256 128
WIRE 2480 832 2256 832
WIRE 2352 896 2352 720
WIRE 2560 944 2560 896
WIRE 1760 1008 1760 272
WIRE 1888 1008 1760 1008
WIRE 2352 1008 2352 960
WIRE 2352 1008 1888 1008
WIRE 2560 1008 2352 1008
WIRE 2688 1008 2688 896
WIRE 2688 1008 2560 1008
WIRE 4864 1008 4864 320
WIRE 4864 1008 2688 1008
WIRE 1888 1024 1888 1008
FLAG -1232 320 0
FLAG 4176 -112 0
FLAG 4128 48 0
FLAG 4080 208 0
FLAG 4032 368 0
FLAG 3632 -64 Reset
FLAG 3616 0 S
FLAG 4672 112 N
FLAG 3632 -304 VCC
FLAG 1680 0 S
FLAG 1904 448 VCC
FLAG 1888 1024 0
FLAG 3056 720 RD
FLAG 1888 -192 0
FLAG 1904 -768 VCC
FLAG 3456 -496 Reset
FLAG 4992 128 V
FLAG 4992 336 0
FLAG 5008 -304 VCC
FLAG 6096 16 M
FLAG 6192 16 M
FLAG 6528 -16 A
FLAG 6624 -16 A
FLAG 6208 -304 VCC
FLAG 6208 336 0
FLAG 6624 336 0
FLAG 6640 -304 VCC
SYMBOL voltage -1024 144 R0
WINDOW 123 0 0 Left 0
WINDOW 39 0 0 Left 0
SYMATTR InstName V1
SYMATTR Value EXP(0 0.25 0 4.5u 50u 7u 500u 5 10m)
SYMBOL bv -1024 16 R0
SYMATTR InstName B1
SYMATTR Value V=0.2*white(1e6*time)
SYMBOL voltage -1232 -48 R0
WINDOW 123 0 0 Left 0
WINDOW 39 0 0 Left 0
SYMATTR InstName VCC
SYMATTR Value 5
SYMBOL ZZZ\\Comparator\\LM393 1328 -64 R0
WINDOW 0 16 32 Left 2
SYMATTR InstName IC3
SYMBOL res 1392 -176 R0
WINDOW 3 36 76 Invisible 2
SYMATTR Value 3k
SYMATTR InstName R_pullup_AD
SYMBOL ZZZ\\TIMER\\NE555-1 2480 -608 R0
WINDOW 0 135 74 Left 2
WINDOW 3 143 92 Invisible 2
SYMATTR InstName IC6
SYMBOL cap 2544 -272 R0
WINDOW 3 24 56 Invisible 2
SYMATTR InstName C_dec2
SYMATTR Value 10n
SYMBOL res 2832 -752 R0
WINDOW 3 36 76 Invisible 2
SYMATTR InstName R_pullup_t2
SYMATTR Value 1k
SYMBOL cap 2336 -320 R0
WINDOW 3 24 56 Invisible 2
SYMATTR InstName C_time2
SYMATTR Value 22n
SYMBOL res 2336 -752 R0
WINDOW 3 36 76 Invisible 2
SYMATTR InstName R_time2
SYMATTR Value 330k
SYMBOL ZZZ\\LOGIC\\CD4xxx\\CD4049B.i 1968 96 R0
WINDOW 3 -32 80 Invisible 2
SYMATTR InstName U4.1
SYMBOL ZZZ\\LOGIC\\CD4xxx\\CD4049B.i 3184 -560 R0
WINDOW 3 -32 80 Invisible 2
SYMATTR InstName U4.2
SYMBOL ZZZ\\TIMER\\NE555-1 2480 608 R0
WINDOW 0 131 72 Left 2
WINDOW 3 143 92 Invisible 2
SYMATTR InstName IC5
SYMBOL cap 2544 944 R0
WINDOW 3 24 56 Invisible 2
SYMATTR InstName C_dec1
SYMATTR Value 10n
SYMBOL res 2832 464 R0
WINDOW 3 36 76 Invisible 2
SYMATTR InstName R_pullup_t1
SYMATTR Value 1k
SYMBOL cap 2336 896 R0
WINDOW 3 24 56 Invisible 2
SYMATTR InstName C_time1
SYMATTR Value 10n
SYMBOL res 2336 464 R0
WINDOW 3 36 76 Invisible 2
SYMATTR InstName R_time1
SYMATTR Value 680k
SYMBOL ZZZ\\LOGIC\\CD4xxx\\CD4040B.i 3760 -128 R0
WINDOW 3 -47 576 Invisible 2
SYMATTR InstName IC4
SYMBOL res 1392 0 R0
WINDOW 3 36 76 Invisible 2
SYMATTR Value 22k
SYMATTR InstName R8
SYMBOL res 1200 128 R0
WINDOW 3 36 76 Invisible 2
SYMATTR Value 10k
SYMATTR InstName R7
SYMBOL res 1200 -192 R0
WINDOW 3 36 76 Invisible 2
SYMATTR Value 10k
SYMATTR InstName R6
SYMBOL ZZZ\\LOGIC\\CD4xxx\\CD4001B.i 3312 -560 R0
WINDOW 3 -32 112 Invisible 2
SYMATTR InstName U3.2
SYMBOL ZZZ\\TIMER\\NE555-1 5552 -96 R0
WINDOW 0 120 65 Left 2
WINDOW 3 143 92 Invisible 2
SYMATTR InstName IC7
SYMBOL ZZZ\\LOGIC\\CD4xxx\\CD4049B.i 5088 80 R0
WINDOW 3 -32 80 Invisible 2
SYMATTR InstName U4.3
SYMBOL cap 5616 240 R0
WINDOW 3 24 56 Invisible 2
SYMATTR InstName C_dec3
SYMATTR Value 10n
SYMBOL cap 5376 160 R0
WINDOW 3 24 56 Invisible 2
SYMATTR InstName C_time3
SYMATTR Value 22n
SYMBOL res 5376 -112 R0
WINDOW 3 36 76 Invisible 2
SYMATTR InstName R_time3
SYMATTR Value 750k
SYMBOL res 5904 -96 R0
WINDOW 3 36 76 Invisible 2
SYMATTR InstName R_pullup3
SYMATTR Value 1k
SYMBOL ZZZ\\LOGIC\\CD4xxx\\CD4027B.i 6400 -112 R0
WINDOW 3 -48 240 Invisible 2
SYMATTR InstName IC8
SYMBOL LED 6720 -288 R0
WINDOW 3 24 64 Invisible 2
SYMATTR InstName LED1
SYMATTR Value W5AP-LZMZ-5K8L
SYMATTR Description Diode
SYMATTR Type diode
SYMBOL res 6720 80 R0
WINDOW 3 36 76 Invisible 2
SYMATTR InstName R_lim
SYMATTR Value 150
SYMBOL voltage -128 0 R90
WINDOW 123 0 0 Left 0
WINDOW 39 0 0 Left 0
WINDOW 0 25 16 VTop 2
WINDOW 3 24 96 Invisible 2
SYMATTR InstName V2
SYMATTR Value PULSE(0 -0.25 30m 7.1u 11u 47u 500u 5)
SYMBOL voltage -16 0 R90
WINDOW 123 0 0 Left 0
WINDOW 39 0 0 Left 0
WINDOW 0 25 16 VTop 2
WINDOW 3 24 96 Invisible 2
SYMATTR InstName V3
SYMATTR Value PULSE(0 -0.25 70m 4.5u 7u 50u 500u 2)
SYMBOL irlr_u8259pbf 5200 208 R0
WINDOW 3 47 24 Invisible 2
SYMATTR InstName Q1
SYMBOL irlr_u8259pbf 6704 -48 R0
WINDOW 3 47 24 Invisible 2
SYMATTR InstName Q2
SYMBOL voltage -304 0 R90
WINDOW 0 -32 56 VBottom 2
WINDOW 3 32 56 Invisible 2
WINDOW 123 0 0 Left 0
WINDOW 39 0 0 Left 0
SYMATTR InstName B2
SYMATTR Value SINE(.1 .1 100 0 0 0 100)
SYMBOL voltage 80 64 R0
WINDOW 3 24 152 Left 2
WINDOW 123 24 124 Left 2
WINDOW 39 0 0 Left 0
SYMATTR Value 1.1
SYMATTR Value2 AC 1
SYMATTR InstName V4
SYMBOL cap 384 -16 R90
WINDOW 0 0 32 VBottom 2
WINDOW 3 32 32 Invisible 2
SYMATTR InstName C2
SYMATTR Value 10n
SYMBOL res 384 80 R0
WINDOW 3 36 76 Invisible 2
SYMATTR Value 15k
SYMATTR InstName R2
SYMBOL cap 960 96 R0
WINDOW 3 24 56 Invisible 2
SYMATTR Value 10n
SYMATTR InstName C3
SYMBOL res 976 -32 R90
WINDOW 0 0 56 VBottom 2
WINDOW 3 32 56 Invisible 2
SYMATTR InstName R3
SYMATTR Value 1.5k
SYMBOL res 752 -112 R0
WINDOW 3 36 76 Invisible 2
SYMATTR Value 33k
SYMATTR InstName R4
SYMBOL res 544 80 R0
WINDOW 3 36 76 Invisible 2
SYMATTR Value 1k
SYMATTR InstName R5
SYMBOL LMC662_NS 672 -16 R0
WINDOW 3 30 23 Invisible 2
SYMATTR InstName IC2
SYMBOL res 4160 -256 R0
WINDOW 3 36 76 Invisible 2
SYMATTR InstName R_pullup_C1
SYMATTR Value 10k
SYMBOL ZZZ\\LOGIC\\CD4xxx\\CD4070B.i 4352 -208 R0
WINDOW 3 -32 112 Invisible 2
SYMATTR InstName U1.1
SYMBOL res 4112 -96 R0
WINDOW 3 36 76 Invisible 2
SYMATTR InstName R_pullup_C2
SYMATTR Value 10k
SYMBOL ZZZ\\LOGIC\\CD4xxx\\CD4070B.i 4352 -48 R0
WINDOW 3 -32 112 Invisible 2
SYMATTR InstName U1.2
SYMBOL res 4064 64 R0
WINDOW 3 36 76 Invisible 2
SYMATTR InstName R_pullup_C3
SYMATTR Value 10k
SYMBOL ZZZ\\LOGIC\\CD4xxx\\CD4070B.i 4352 112 R0
WINDOW 3 -32 112 Invisible 2
SYMATTR InstName U1.3
SYMBOL res 4016 224 R0
WINDOW 3 36 76 Invisible 2
SYMATTR InstName R_pullup_C4
SYMATTR Value 10k
SYMBOL ZZZ\\LOGIC\\CD4xxx\\CD4070B.i 4352 272 R0
WINDOW 3 -32 112 Invisible 2
SYMATTR InstName U1.4
SYMBOL ZZZ\\LOGIC\\CD4xxx\\CD4001B.i 4816 64 R0
WINDOW 3 -32 112 Invisible 2
SYMATTR InstName U3.1
SYMBOL ZZZ\\LOGIC\\CD4xxx\\CD4012B.i 4560 16 R0
WINDOW 3 -32 176 Invisible 2
SYMATTR InstName U2.1
SYMBOL ZZZ\\LOGIC\\CD4xxx\\CD4012B.i 2128 32 R0
WINDOW 3 -32 176 Invisible 2
SYMATTR InstName U2.2
SYMBOL cap 3232 -368 R0
WINDOW 3 24 56 Invisible 2
SYMATTR InstName C_L_fe
SYMATTR Value 2.2n
SYMBOL cap 2032 208 R0
WINDOW 3 24 56 Invisible 2
SYMATTR InstName C_L_re
SYMATTR Value 5.6n
TEXT -952 312 Left 2 !.tran 100m\n;ac dec 100 10 1Meg
TEXT -952 392 Left 2 ;Input Voltage Signal
TEXT 552 400 Left 2 ;Signal Treatment
TEXT 1264 392 Left 2 ;A/D Conversion
TEXT 1920 304 Left 2 ;Rising Edge Detection
TEXT 2568 -168 Left 2 ;8ms Timer
TEXT 3120 -160 Left 2 ;Falling Edge Detection
TEXT 2568 1048 Left 2 ;7.5ms Timer
TEXT 4080 488 Left 2 ;N - Counter
TEXT 2544 -80 Left 2 ;Reset Trigger
TEXT 2560 1112 Left 2 ;Read Delay
TEXT 3104 1200 Left 2 ;Burst Validation
TEXT 5384 368 Left 2 ;Missing Pulse Detector
TEXT 6248 368 Left 2 ;Rising Edge Toggle
TEXT 6712 368 Left 2 ;Actuator
TEXT -288 392 Left 2 ;Perturbations & Diagnostics
TEXT 344 320 Left 2 ;High Pass
TEXT 912 320 Left 2 ;Low Pass
TEXT 600 320 Left 2 ;Amplification
TEXT -384 320 Left 2 ;Noise
TEXT -192 320 Left 2 ;Burst Killers
TEXT 72 320 Left 2 ;Bode
TEXT -408 48 Left 0 ;100 Hz sine wave & offset\nSimulates ambient light
TEXT -208 64 Left 0 ;kills burst #4
TEXT -120 64 Left 0 ;partially kills burst #8
TEXT -1256 392 Left 2 ;Power
RECTANGLE Normal -1072 -96 -528 432 2
RECTANGLE Normal 1088 432 272 -288 2
RECTANGLE Normal 1600 432 1152 -288 2
RECTANGLE Normal 2208 336 1872 16 2
RECTANGLE Normal 3024 -128 2304 -816 2
RECTANGLE Normal 3424 -128 3072 -576 2
RECTANGLE Normal 3024 1088 2304 400 2
RECTANGLE Normal 4688 528 3600 -416 2
RECTANGLE Normal 3504 -48 1872 -848 2
RECTANGLE Normal 1872 368 3088 1152 2
RECTANGLE Normal 4912 1232 1664 -944 2
RECTANGLE Normal 6112 400 4976 -352 2
RECTANGLE Normal 6544 400 6176 -352 2
RECTANGLE Normal 6912 400 6608 -352 2
RECTANGLE Normal 208 432 -464 -96 2
RECTANGLE Normal 496 352 304 -160 2
RECTANGLE Normal 832 352 528 -160 2
RECTANGLE Normal 1056 352 864 -160 2
RECTANGLE Normal -1136 432 -1312 -288 2
RECTANGLE Normal -272 352 -432 -64 2
RECTANGLE Normal 0 352 -240 -64 2
RECTANGLE Normal 176 352 32 -64 2
