Version 4
SHEET 1 880 680
WIRE 208 -80 -48 -80
WIRE 352 -80 352 -144
WIRE 352 -80 208 -80
WIRE 208 0 -16 0
WIRE 672 0 208 0
WIRE 64 64 16 64
WIRE 352 64 352 -80
WIRE 352 64 288 64
WIRE -256 128 -352 128
WIRE 64 128 -128 128
WIRE 320 128 288 128
WIRE -16 192 -16 0
WIRE 64 192 -16 192
WIRE 320 192 320 128
WIRE 320 192 288 192
WIRE 352 192 352 144
WIRE 352 192 320 192
WIRE -48 256 -48 -80
WIRE 64 256 -48 256
WIRE 16 336 16 64
WIRE 352 336 352 256
WIRE 352 336 16 336
WIRE 16 464 16 336
FLAG 16 464 0
FLAG -352 128 TRIG
IOPIN -352 128 In
FLAG 672 0 OUT
IOPIN 672 0 BiDir
SYMBOL ZZZ\\TIMER\\NE555_R 176 160 R0
SYMATTR InstName U1
SYMBOL cap 352 240 R90
WINDOW 0 0 32 VBottom 2
WINDOW 3 32 32 VTop 2
SYMATTR InstName C1
SYMATTR Value 10n
SYMBOL cap 336 192 R0
SYMATTR InstName C2
SYMATTR Value 8.2n
SYMBOL res 336 48 R0
SYMATTR InstName R1
SYMATTR Value 470k
SYMBOL res 192 -96 R0
SYMATTR InstName R2
SYMATTR Value 1k
SYMBOL Vcc 352 -208 R0
SYMATTR InstName U2
SYMBOL Rising_Edge -192 112 R0
SYMATTR InstName X1
TEXT -336 248 Left 2 ;rising edge trigger
