Version 4
SHEET 1 880 680
WIRE 96 80 64 80
WIRE 32 112 32 48
WIRE 96 112 32 112
WIRE 448 112 288 112
WIRE 96 144 -96 144
WIRE 32 176 32 112
WIRE 96 176 32 176
WIRE 64 208 64 80
WIRE 96 208 64 208
WIRE 64 272 64 208
FLAG 64 272 0
FLAG -96 144 T
IOPIN -96 144 In
FLAG 448 112 Q
IOPIN 448 112 Out
SYMBOL ZZZ\\LOGIC\\CD4xxx\\CD4027B.i 192 16 R0
SYMATTR InstName U1
SYMBOL Vcc 32 -16 R0
SYMATTR InstName U2
